423
O          7.90263       -3.81798       -2.08966
H          7.10139       -3.54952       -1.55492
H          8.71989       -3.38929       -1.70456
O          7.56309        3.19099        0.19527
H          7.32876        4.02597        0.69315
H          6.72661        2.75227       -0.13311
O          5.97620       -2.93137        7.08197
H          6.72727       -2.42641        7.50730
H          6.00303       -3.88495        7.38189
O         -2.64443        2.49330       -7.30438
H         -3.22121        2.92880       -7.99551
H         -1.68587        2.55490       -7.58254
O         -0.99541        6.22604       -4.88900
H         -0.50413        6.30784       -5.75615
H         -1.31217        5.28474       -4.77231
O         -6.64428        4.90024       -0.11510
H         -6.36134        4.66553       -1.04508
H         -6.85805        5.87596       -0.06745
O          0.45581        2.26189       -1.00640
H          1.35487        2.11586       -0.59365
H          0.44700        3.13967       -1.48540
O          2.57854        1.23976       -3.90370
H          3.35286        0.61203       -3.82373
H          1.72377        0.72240       -3.86244
O         -6.55892        1.92123       -2.57242
H         -7.05148        1.67362       -1.73811
H         -6.36392        2.90201       -2.56631
O         -4.42219        0.15694       -0.20403
H         -3.54129        0.33035        0.23636
H         -4.52019        0.75324       -1.00079
O          0.01831       -6.59154        8.74750
H         -0.64083       -6.40266       -8.41026
H         -0.01571       -5.85869        8.06797
O          0.88982        5.07613       -1.97578
H          1.76420        5.06347       -2.46086
H          0.37118        5.88806       -2.24370
O          0.06878        6.40036       -7.27834
H         -0.14787        6.60447       -8.23301
H          0.82967        5.75262       -7.23985
O          1.54296        6.84754        6.74121
H          2.53867        6.78675        6.67148
H          1.17130        5.95565        6.99887
O         -1.57333        1.16492       -2.75759
H         -0.83248        1.39586       -2.12687
H         -1.47975        0.21263       -3.04808
O         -2.82802       -8.71875       -3.61376
H         -2.95958       -8.06907       -2.86502
H         -2.74721        8.24185       -3.24270
O         -6.23384        5.09315       -3.06405
H         -5.28184        5.39916       -3.05620
H         -6.59972        5.16438       -3.99198
O          5.15341        6.65553        4.64371
H          5.12234        7.51990        4.14180
H          5.06071        5.89373        4.00257
O          7.53425        2.98633        3.42777
H          7.74209        2.32365        2.70828
H          7.75112        2.58963        4.31973
O          8.66104        5.63011       -8.22667
H          8.39001        6.53418       -7.89619
H         -8.23319        5.52827       -8.14504
O         -3.40098       -6.08637        8.71298
H         -2.80090       -6.35199       -8.41814
H         -2.93976       -5.40614        8.14326
O         -1.22834        4.00692        3.94449
H         -1.36181        4.60302        3.15275
H         -1.57987        3.09383        3.73790
O         -6.77632        3.18723       -5.08629
H         -7.68523        3.59809       -5.01497
H         -6.72078        2.39269       -4.48162
O          1.06360       -4.79531        3.90808
H          0.78086       -4.04716        3.30780
H          0.29223       -5.41423        4.05611
O         -1.79428       -1.48256       -3.81349
H         -2.25622       -2.14152       -3.21986
H         -2.32470       -1.35980       -4.65229
O          1.68850       -1.42371        7.83900
H          0.87806       -1.01291        7.42136
H          2.08705       -2.09037        7.20914
O         -2.37810        5.45236        1.85972
H         -3.14744        4.83577        1.69259
H         -2.08821        5.86598        0.99665
O         -7.95987        1.58832       -0.25068
H         -8.67736        2.24610       -0.02145
H         -8.24672        0.67134        0.02657
O         -1.31302       -5.90961       -0.29063
H         -1.20076       -5.04332        0.19614
H         -2.28586       -6.13112       -0.35782
O         -6.77249       -2.91282       -2.40817
H         -6.48458       -2.71123       -3.34437
H         -5.96693       -2.99255       -1.82105
O         -0.82131        7.62934        2.68717
H         -0.43675        7.66198        1.76464
H         -1.42036        6.83303        2.77111
O          7.95712       -0.63651        6.88386
H          8.16221       -0.28524        7.79739
H          7.61187        0.10637        6.31032
O         -0.00799       -7.84546       -2.61580
H         -0.51020       -7.26701       -1.97301
H          0.12374       -7.35248       -3.47581
O          4.25219        5.74837        6.98622
H          4.63544        6.45891        7.57635
H          4.56539        5.88963        6.04710
O          4.04530       -6.20891       -6.70643
H          4.45383       -5.31469       -6.52350
H          4.42405       -6.88461       -6.07400
O         -6.58640       -0.67451        5.99745
H         -7.44621       -1.15916        5.83672
H         -6.21429       -0.35669        5.12536
O          5.65811       -1.79537        4.49443
H          4.75148       -1.37547        4.45312
H          5.80806       -2.17684        5.40657
O          7.69559        5.02684       -1.98209
H          8.41332        4.42667       -1.62901
H          6.93500        5.05503       -1.33347
O          3.04478        4.01159       -4.19902
H          2.72344        3.09671       -3.95458
H          4.04255        4.04190       -4.13951
O         -1.95931        0.91804        0.68802
H         -1.26028        1.35593        0.12267
H         -1.96314        1.33522        1.59684
O          0.83429        0.64171        3.92095
H          1.51430       -0.09091        3.95017
H          1.28831        1.52379        4.04667
O         -6.57687       -6.75154        7.67406
H         -6.33060       -6.19205        8.46546
H         -6.50501       -7.71960        7.91428
O         -3.29845       -5.55211        3.82655
H         -3.63257       -6.14970        3.09768
H         -2.51401       -5.97987        4.27564
O          8.34510        4.13121       -4.36512
H          7.99277        4.47305       -3.49391
H          7.61248        3.66612       -4.86207
O          2.08465       -3.32552        6.04122
H          1.67050       -3.87849        5.31824
H          2.93297       -3.75751        6.34738
O         -3.00113       -3.20565        2.18067
H         -3.71612       -2.51182        2.26655
H         -3.12502       -3.90194        2.88765
O         -3.55438        5.55599       -2.65127
H         -2.98205        5.43453       -3.46225
H         -3.41872        4.78544       -2.02850
O          1.50556       -5.62166        0.27679
H          0.52381       -5.66257        0.09108
H          1.93835       -4.97888       -0.35528
O         -5.16941       -1.92766       -4.94574
H         -4.92599       -2.32791       -5.82923
H         -5.08036       -0.93281       -4.99408
O          1.39982       -3.03845       -1.21864
H          1.34470       -3.05724       -2.21694
H          0.49801       -3.22920       -0.83088
O          1.16672       -2.77526       -4.15414
H          1.68485       -2.15965       -4.74791
H          0.20055       -2.51771       -4.16801
O          5.37553       -3.73617       -6.37012
H          6.34254       -3.50611       -6.47954
H          4.84800       -3.32275       -7.11227
O         -7.34261       -6.83266        4.61116
H         -7.56575       -6.45136        5.50828
H         -6.94281       -7.74216        4.72508
O          6.36518        3.16222       -8.01502
H          7.31554        3.44535       -8.14409
H          5.75782        3.93149       -8.21333
O         -6.68207       -3.19090        4.23431
H         -6.22576       -3.73029        4.94202
H         -7.57421       -2.88756        4.56907
O         -4.76525       -2.89890       -7.30542
H         -5.22348       -3.78251       -7.20924
H         -4.51989       -2.75268       -8.26377
O         -7.96710       -2.17202        0.00295
H         -7.28768       -2.63935        0.56863
H         -7.74525       -2.30455       -0.96308
O         -4.34366        3.50843        8.65909
H         -4.91369        2.81313       -8.78884
H         -4.23907        3.29170        7.68847
O         -3.38814        8.93424       -6.23278
H         -2.44923        8.80674       -6.55247
H         -3.37720       -8.56120       -5.31213
O          2.07800        2.83632        4.13068
H          2.89342        3.24194        3.71767
H          1.46619        3.56253        4.44421
O         -4.55762        3.87197        1.55165
H         -5.31913        4.27399        1.04324
H         -4.91227        3.23255        2.23383
O          5.23701        5.85971       -6.55985
H          4.58706        5.90116       -5.80100
H          5.82725        6.66665       -6.53827
O          4.61474        3.63775        2.96554
H          5.50525        3.38354        3.34286
H          4.70226        3.79817        1.98238
O         -6.94102       -7.28689       -4.55259
H         -7.01148       -8.18944       -4.12782
H         -7.84420       -6.99440       -4.86678
O          4.85302        0.01802       -1.65754
H          4.59069       -0.63211       -2.37064
H          4.90208       -0.45388       -0.77725
O          2.14194        4.00671       -6.70570
H          2.16429        4.01022       -5.70596
H          3.03997        3.74420       -7.05875
O          4.64915        3.84578        0.25879
H          3.76866        3.51945        0.60267
H          4.76486        3.55549       -0.69113
O         -6.09937        3.55164        4.64698
H         -6.70375        4.24709        5.03566
H         -5.19522        3.62189        5.06836
O          5.20616       -0.20129       -6.16519
H          4.33942       -0.23600       -5.66764
H          5.16127       -0.81067       -6.95680
O          8.09204       -3.44402       -6.55054
H          8.79294       -3.89447       -7.10356
H          8.51893       -3.01811       -5.75281
O         -1.68317        1.47580        3.33169
H         -2.40537        1.03468        3.86445
H         -0.83548        0.95294        3.42133
O         -0.10367        2.86378       -8.04736
H          0.09134        2.61629        8.88925
H          0.59363        3.50062       -7.71843
O          2.81381        1.50736        0.64647
H          2.20260        1.51532        1.43790
H          3.60145        0.92204        0.83887
O          2.77278       -1.26254        4.15028
H          2.73652       -1.87091        4.94310
H          2.48978       -1.76315        3.33216
O          0.09144        8.55301        5.21502
H         -0.19173        8.29344        4.29174
H          0.31446        7.73115        5.73923
O          5.93141        2.16271       -5.11176
H          5.85952        2.78817       -5.88870
H          5.71350        1.23344       -5.41004
O          5.06508       -0.61813        1.01253
H          4.72653       -1.55868        1.03981
H          6.01963       -0.61546        0.71449
O         -4.82309       -4.55310        5.87572
H         -5.24549       -5.27793        6.41998
H         -4.15938       -4.95367        5.24403
O         -1.71602       -0.39320       -6.80070
H         -0.76816       -0.08839       -6.70767
H         -2.24069        0.29582       -7.30068
O          4.36147       -7.89631       -4.19457
H          3.39253       -7.88988       -3.94736
H          4.90185       -7.53152       -3.43633
O          7.04847       -8.06163       -6.14806
H          7.14242        8.84292       -5.97905
H          6.10096       -7.78462       -5.98842
O         -5.41486       -0.09108       -7.53201
H         -5.41297       -1.08947       -7.47533
H         -5.46663        0.29544       -6.61118
O         -4.33872        8.34549        2.41056
H         -3.44541        8.67033        2.72118
H         -4.25890        7.39986        2.09527
O         -1.36066       -2.97192       -8.50979
H         -2.17421       -2.75353        8.83696
H         -1.36067       -2.42864       -7.67024
O         -4.05321       -2.59179        8.12534
H         -4.13857       -3.36410        7.49585
H         -4.23445       -1.73955        7.63460
O         -4.57041       -0.10143        7.65884
H         -4.78062       -0.01066        8.63227
H         -5.34949        0.21578        7.11810
O          3.94250        2.98790        6.51488
H          4.08720        3.83261        7.03018
H          3.36386        3.17597        5.72128
O          4.46566       -2.22439       -8.53276
H          4.85647       -2.47758        8.46795
H          3.47212       -2.14760       -8.61628
O         -7.07691        7.75681        0.07358
H         -7.91577        7.60123        0.59522
H         -7.19269        8.55797       -0.51357
O          3.40149       -2.65352        0.53255
H          2.73014       -2.57015       -0.20389
H          3.74187       -3.59309        0.56916
O         -1.00017       -0.07813        6.68660
H         -1.48189       -0.68367        7.32006
H         -1.55522        0.05585        5.86564
O          4.35516       -1.47011       -3.94484
H          5.05828       -1.49323       -4.65553
H          3.97069       -2.38553       -3.82574
O         -5.90278        0.72992        1.93729
H         -6.58006        1.43005        1.71121
H         -5.34230        0.53539        1.13230
O         -2.90859       -3.35789       -2.23150
H         -3.69255       -2.96770       -1.74864
H         -3.14350       -4.27016       -2.56702
O          3.71599       -4.89971        3.44823
H          3.95208       -5.81114        3.78523
H          2.73090       -4.75453        3.54048
O         -6.47800       -6.73824        2.04479
H         -6.87774       -6.78596        2.96017
H         -5.73335       -7.40158        1.97074
O         -8.72860       -2.16276        5.03848
H          8.63509       -1.83372        5.82541
H          8.53014       -2.38866        4.29288
O          2.04991       -7.81523        1.81544
H          2.72289       -8.08686        1.12747
H          1.58733       -6.97991        1.51834
O          8.88818       -6.86692        0.42092
H         -8.04174       -6.80211        0.70786
H          8.29831       -6.49726        1.13884
O          0.45699        2.00217        7.41785
H         -0.12937        1.27260        7.06585
H          1.30255        2.03716        6.88511
O         -1.13101       -3.38773        0.22543
H         -1.82068       -3.24194        0.93472
H         -1.55988       -3.32263       -0.67559
O          2.89085       -6.80174        7.40555
H          2.32453       -6.79108        8.22967
H          2.40265       -7.27321        6.67112
O         -4.40499        7.86606       -0.90193
H         -5.35786        7.83606       -0.60003
H         -4.16878        7.00272       -1.34785
O          6.24399        1.45867        5.61091
H          5.79983        2.11258        6.22337
H          5.54907        0.89851        5.16000
O         -7.74416        7.85067       -3.74245
H         -7.09866        7.36003       -4.32778
H         -7.79128        7.40346       -2.84926
O         -6.26884       -3.82059        1.52282
H         -6.25862       -4.81744        1.44417
H         -6.41768       -3.56257        2.47742
O         -0.54658       -8.74664       -7.27109
H         -0.03141       -8.50600       -8.09370
H         -0.19838        8.27866       -6.89893
O         -5.78404       -8.39107       -7.27935
H         -6.43691       -8.21942       -6.54159
H         -4.88742       -8.60104       -6.88951
O          2.33844       -1.23078       -6.26961
H          1.98104       -0.52745       -6.88409
H          2.72189       -1.98106       -6.80817
O         -7.57342        5.73144        6.32489
H         -7.42744        5.83042        7.30922
H         -8.55045        5.62267        6.14161
O          7.88852        5.28856        1.96815
H          7.86816        4.50114        2.58424
H          8.83350        5.59156        1.84483
O          5.57329       -5.08406       -2.85071
H          6.33176       -4.50263       -3.14510
H          5.81216       -5.53410       -1.99024
O         -3.44211        0.37401        4.85618
H         -3.90783       -0.19364        4.17730
H         -4.00995        0.44742        5.67604
O         -0.48651        7.44041       -2.65774
H         -0.31336        8.42510       -2.63758
H         -0.64498        7.14859       -3.60100
O          5.82162        2.55803       -1.93329
H          5.63239        1.58816       -1.77986
H          5.87444        2.73647       -2.91583
O         -0.49694        6.49664        0.01979
H          0.10377        5.79251       -0.35881
H         -0.54883        7.26769       -0.61488
O          5.22484       -8.90106        6.83335
H          5.10414        8.28904        6.12511
H          4.49028       -8.22581        6.76669
O         -5.67251       -5.74837       -2.52643
H         -5.95157       -6.14382       -3.40151
H         -6.16693       -4.89262       -2.37402
O         -6.55844        7.69202        4.06191
H         -6.25339        6.93342        4.63765
H         -5.86245        7.88756        3.37100
O          0.95989       -2.80139        2.11576
H          0.14897       -2.38471        1.70493
H          1.66357       -2.92319        1.41576
O         -1.16829       -6.30722        5.07190
H         -0.70692       -7.19436        5.06068
H         -0.77903       -5.73766        5.79583
O         -2.11834        3.73246       -4.72055
H         -2.53347        3.33526       -5.53902
H         -1.57101        3.03809       -4.25335
O         -5.63298       -5.63744       -7.79248
H         -4.75117       -5.61628       -8.26360
H         -5.92279       -6.58652       -7.66901
O         -4.73834       -2.52934       -0.59792
H         -4.80650       -1.54844       -0.41572
H         -5.06453       -3.04007        0.19754
O          7.70313        7.28527       -5.35677
H          8.38504        7.73865       -4.78280
H          7.78140        6.29423       -5.24854
O         -5.31212        0.67342       -4.94652
H         -5.58809        0.76520       -3.98974
H         -4.73930        1.45134       -5.20481
O          6.43786       -5.54489       -0.11972
H          6.18768       -5.58052        0.84782
H          7.26248       -6.08982       -0.27157
O          7.42278       -1.14476       -0.30150
H          7.52904       -0.36778       -0.92199
H          8.32429       -1.49778       -0.05120
O         -6.60715        4.60176       -7.97309
H         -6.73259        3.97378       -7.20504
H         -5.70223        4.46125       -8.37480
O          1.21115        0.28578       -7.93962
H          0.74867        1.15586       -8.11012
H          1.26963       -0.23382       -8.79203
O         -3.74050       -7.45673       -1.36643
H         -4.01264       -8.36377       -1.04515
H         -4.54241       -6.97164       -1.71517
O          8.29830       -5.76431        2.81933
H          8.89404       -5.65613        3.61519
H          7.58233       -5.06652        2.84100
O         -5.68601        6.73819       -5.63799
H         -5.92884        6.15270       -6.41145
H         -4.94787        7.35704       -5.90662
O         -4.93671       -1.29741        3.33364
H         -5.36119       -0.63728        2.71394
H         -5.62082       -1.96305        3.63184
O         -3.43771        3.10998        5.50874
H         -3.41563        2.16042        5.19595
H         -2.68057        3.61544        5.09492
O          2.30359       -7.89142        4.79059
H          1.49094       -8.43609        4.99783
H          2.45474       -7.88018        3.80214
O          0.22909        4.52236        6.38262
H         -0.29249        4.42096        5.53546
H          0.14821        3.68706        6.92643
O          6.24276       -4.06905        2.95666
H          5.26082       -4.22281        3.06684
H          6.47757       -3.15691        3.29264
O         -3.04021        2.99865       -1.18062
H         -2.91334        2.72724       -0.22655
H         -2.63528        2.30870       -1.78062
O         -1.61712       -6.37134       -7.04722
H         -2.20673       -6.08600       -6.29161
H         -1.28246       -7.29833       -6.87780
O          5.84526       -5.59037        7.62962
H          5.04208       -5.84770        8.16691
H          6.26539       -6.41143        7.24315
